Questionable use of curly braces in ".meas ac av_db_1k param={20*log10(av_mag_1k)}"
    Error: undefined symbol in: "20*log10([av_mag_1k])"
LTspice 24.0.9 for Windows
Circuit: * C:\Users\saina\OneDrive\Desktop\OpampWars\submission\test(1).asc
Start Time: Sun Nov  9 15:54:06 2025
solver = Normal
Maximum thread count: 16



Instance "m:xamp:1": Length shorter than recommended for a level 1 MOSFET.
Instance "m:xamp:1": Width narrower than recommended for a level 1 MOSFET.
Instance "m:xamp:2": Length shorter than recommended for a level 1 MOSFET.
Instance "m:xamp:2": Width narrower than recommended for a level 1 MOSFET.
Instance "m:xamp:3": Length shorter than recommended for a level 1 MOSFET.
Instance "m:xamp:3": Width narrower than recommended for a level 1 MOSFET.
Instance "m:xamp:4": Length shorter than recommended for a level 1 MOSFET.
Instance "m:xamp:4": Width narrower than recommended for a level 1 MOSFET.
Instance "m:xamp:8": Length shorter than recommended for a level 1 MOSFET.
Instance "m:xamp:8": Width narrower than recommended for a level 1 MOSFET.
Instance "m:amp:1": Length shorter than recommended for a level 1 MOSFET.
Instance "m:amp:1": Width narrower than recommended for a level 1 MOSFET.
Instance "m:amp:2": Length shorter than recommended for a level 1 MOSFET.
Instance "m:amp:2": Width narrower than recommended for a level 1 MOSFET.
Instance "m:amp:3": Length shorter than recommended for a level 1 MOSFET.
Instance "m:amp:3": Width narrower than recommended for a level 1 MOSFET.
Instance "m:amp:4": Length shorter than recommended for a level 1 MOSFET.
Instance "m:amp:4": Width narrower than recommended for a level 1 MOSFET.
Instance "m:amp:8": Length shorter than recommended for a level 1 MOSFET.
Instance "m:amp:8": Width narrower than recommended for a level 1 MOSFET.
Instance "m:xamp:5": Length shorter than recommended for a level 1 MOSFET.
Instance "m:xamp:5": Width narrower than recommended for a level 1 MOSFET.
Instance "m:xamp:6": Length shorter than recommended for a level 1 MOSFET.
Instance "m:xamp:6": Width narrower than recommended for a level 1 MOSFET.
Instance "m:xamp:7": Length shorter than recommended for a level 1 MOSFET.
Instance "m:amp:5": Length shorter than recommended for a level 1 MOSFET.
Instance "m:amp:5": Width narrower than recommended for a level 1 MOSFET.
Instance "m:amp:6": Length shorter than recommended for a level 1 MOSFET.
Instance "m:amp:6": Width narrower than recommended for a level 1 MOSFET.
Instance "m:amp:7": Length shorter than recommended for a level 1 MOSFET.
Direct Newton iteration for .op point succeeded.
.step run=1



.step run=2



.step run=3



.step run=4



.step run=5



.step run=6



.step run=7



.step run=8



.step run=9



.step run=10



.step run=11



.step run=12



.step run=13



.step run=14



.step run=15



.step run=16



.step run=17



.step run=18



.step run=19
tnom = 27
temp = 27
method = modified trap
.step run=20


Measurement: sr_rise
  step	MAX(d(v(vout)))	FROM	TO
     1	5.14453e+06	0	0.0005
     2	5.14453e+06	0	0.0005
     3	5.14453e+06	0	0.0005
     4	5.14453e+06	0	0.0005
     5	5.14453e+06	0	0.0005
     6	5.14453e+06	0	0.0005
     7	5.14453e+06	0	0.0005
     8	5.14453e+06	0	0.0005
     9	5.14453e+06	0	0.0005
    10	5.14453e+06	0	0.0005
    11	5.14453e+06	0	0.0005
    12	5.14453e+06	0	0.0005
    13	5.14453e+06	0	0.0005
    14	5.14453e+06	0	0.0005
    15	5.14453e+06	0	0.0005
    16	5.14453e+06	0	0.0005
    17	5.14453e+06	0	0.0005
    18	5.14453e+06	0	0.0005
    19	5.14453e+06	0	0.0005
    20	5.14453e+06	0	0.0005

Measurement: sr_fall
  step	MIN(d(v(vout)))	FROM	TO
     1	-610352	0	0.0005
     2	-610352	0	0.0005
     3	-610352	0	0.0005
     4	-610352	0	0.0005
     5	-610352	0	0.0005
     6	-610352	0	0.0005
     7	-610352	0	0.0005
     8	-610352	0	0.0005
     9	-610352	0	0.0005
    10	-610352	0	0.0005
    11	-610352	0	0.0005
    12	-610352	0	0.0005
    13	-610352	0	0.0005
    14	-610352	0	0.0005
    15	-610352	0	0.0005
    16	-610352	0	0.0005
    17	-610352	0	0.0005
    18	-610352	0	0.0005
    19	-610352	0	0.0005
    20	-610352	0	0.0005

Measurement "vos_out" FAIL'ed

Total elapsed time: 29.084 seconds.

